%nprocshared=6
%chk=G:\Meu Drive\POS-DOC-IME\SUBSTITUINTES-DOADORES\DPP-substituido\DPP-SUB-4a-OPT-FREQ.chk
# opt freq b3lyp/6-31+g(d,p) geom=connectivity polar

Title Card Required

0 1
 N                  1.56730700    1.42871500   -0.30498800
 C                  0.19782600    1.80304500   -0.38803000
 C                  1.75926600    0.04838100   -0.33404500
 C                  0.49319700   -0.51963300   -0.38922900
 C                 -0.49198300    0.52146400   -0.39035600
 C                 -1.75805300   -0.04657100   -0.32800400
 C                 -0.19627300   -1.80131600   -0.37803500
 N                 -1.56546500   -1.42675100   -0.29140000
 O                 -0.18115600    2.96824000   -0.46994600
 O                  0.18274500   -2.96669400   -0.45562200
 H                 -2.29044900   -2.10434700   -0.47918700
 H                  2.29219700    2.10533100   -0.49680600
 C                  5.55070700   -0.55736800    0.04950500
 C                  4.26210900    0.11145700    0.17651200
 C                  3.07432800   -0.56806600   -0.31003000
 C                  3.21273600   -1.86136400   -0.79449600
 H                  2.32753700   -2.39941000   -1.11748700
 C                  4.47679100   -2.50551700   -0.89237800
 H                  4.51626200   -3.51263900   -1.29519800
 C                  5.62988500   -1.86986000   -0.50682400
 H                  6.59664300   -2.35586800   -0.59938500
 C                  4.39320800    1.33863600    0.81566000
 H                  3.62609300    2.02675400    1.13629800
 C                  6.59412700    0.19962900    0.56550900
 H                  7.64439600   -0.05453000    0.59964600
 S                  6.03020200    1.67687400    1.22096600
 C                 -4.26230600   -0.11222000    0.17848900
 C                 -5.55081300    0.55642200    0.04877400
 C                 -5.62875500    1.87113500   -0.50229200
 H                 -6.59549900    2.35683500   -0.59658300
 C                 -4.47448400    2.50929900   -0.88015300
 H                 -4.51287100    3.51825400   -1.27846900
 C                 -3.21060900    1.86528400   -0.78069900
 H                 -2.32479700    2.40510200   -1.09920000
 C                 -3.07292000    0.56989200   -0.30096200
 C                 -6.59601700   -0.20269300    0.55805300
 H                 -7.64649500    0.05103600    0.58875300
 C                 -4.39576100   -1.34148500    0.81328600
 H                 -3.63003500   -2.02977800    1.13675300
 S                 -6.03431500   -1.68213400    1.21019800

 1 2 1.0 3 1.0 12 1.0
 2 5 1.0 9 2.0
 3 4 1.5 15 1.0
 4 5 1.5 7 1.0
 5 6 1.5
 6 8 1.0 35 1.0
 7 8 1.0 10 2.0
 8 11 1.0
 9
 10
 11
 12
 13 14 1.0 20 1.5 24 1.5
 14 15 1.0 22 1.5
 15 16 1.5
 16 17 1.0 18 1.5
 17
 18 19 1.0 20 2.0
 19
 20 21 1.0
 21
 22 23 1.0 26 1.0
 23
 24 25 1.0 26 1.0
 25
 26
 27 28 1.0 35 1.0 38 1.5
 28 29 1.5 36 1.5
 29 30 1.0 31 2.0
 30
 31 32 1.0 33 1.5
 32
 33 34 1.0 35 1.5
 34
 35
 36 37 1.0 40 1.0
 37
 38 39 1.0 40 1.0
 39
 40

