%mem=150MW
%nprocshared=6
%chk=G:\Meu Drive\POS-DOC-IME\SUBSTITUINTES-DOADORES\DPP-substituido\DPP-SUB-4a\DPP-SUB-4A-TD-DFT.chk
# td=(nstates=10) cam-b3lyp/6-31+g(d,p) geom=connectivity

Title Card Required

0 1
 N                  1.56525100    1.42887800   -0.30340000
 C                  0.19559600    1.80238700   -0.38795800
 C                  1.75847200    0.04881200   -0.33595100
 C                  0.49300900   -0.52025700   -0.39523100
 C                 -0.49295700    0.52012800   -0.39510800
 C                 -1.75842600   -0.04894600   -0.33576000
 C                 -0.19551400   -1.80251700   -0.38824900
 N                 -1.56521500   -1.42904300   -0.30356300
 O                 -0.18436900    2.96736400   -0.46718600
 O                  0.18442700   -2.96744600   -0.46809100
 H                 -2.28994400   -2.10671400   -0.49218700
 H                  2.29009300    2.10670000   -0.49103300
 C                  5.54979800   -0.55459400    0.05216900
 C                  4.26041300    0.11277500    0.17887600
 C                  3.07400200   -0.56655200   -0.31123800
 C                  3.21430000   -1.85857700   -0.79861700
 H                  2.33008700   -2.39660000   -1.12435400
 C                  4.47905100   -2.50139900   -0.89607900
 H                  4.52001000   -3.50752800   -1.30122200
 C                  5.63099500   -1.86566100   -0.50721200
 H                  6.59833100   -2.35058200   -0.59944700
 C                  4.38948200    1.33854200    0.82112900
 H                  3.62134800    2.02523600    1.14240400
 C                  6.59173500    0.20191500    0.57187900
 H                  7.64215200   -0.05148500    0.60709600
 S                  6.02559800    1.67730500    1.22958200
 C                 -4.26045200   -0.11283200    0.17907200
 C                 -5.54975700    0.55471300    0.05240300
 C                 -5.63079000    1.86589200   -0.50671900
 H                 -6.59806800    2.35094200   -0.59889000
 C                 -4.47875000    2.50163400   -0.89529200
 H                 -4.51957700    3.50787400   -1.30017000
 C                 -3.21408300    1.85865900   -0.79789700
 H                 -2.32979400    2.39669000   -1.12342100
 C                 -3.07393400    0.56646400   -0.31088800
 C                 -6.59183100   -0.20177300    0.57187500
 H                 -7.64222100    0.05175000    0.60702400
 C                 -4.38972200   -1.33863000    0.82123900
 H                 -3.62171500   -2.02540600    1.14261700
 S                 -6.02592700   -1.67731500    1.22941000

 1 2 1.0 3 1.0 12 1.0
 2 5 1.0 9 2.0
 3 4 1.5 15 1.0
 4 5 1.5 7 1.0
 5 6 1.5
 6 8 1.0 35 1.0
 7 8 1.0 10 2.0
 8 11 1.0
 9
 10
 11
 12
 13 14 1.0 20 1.5 24 1.5
 14 15 1.0 22 1.5
 15 16 1.5
 16 17 1.0 18 1.5
 17
 18 19 1.0 20 2.0
 19
 20 21 1.0
 21
 22 23 1.0 26 1.0
 23
 24 25 1.0 26 1.0
 25
 26
 27 28 1.0 35 1.0 38 1.5
 28 29 1.5 36 1.5
 29 30 1.0 31 2.0
 30
 31 32 1.0 33 1.5
 32
 33 34 1.0 35 1.5
 34
 35
 36 37 1.0 40 1.0
 37
 38 39 1.0 40 1.0
 39
 40

