%nprocshared=6
%chk=DPP-SUB-5A-ANION.chk
# opt=tight freq b3lyp/6-31+g(d,p) nosymm geom=connectivity

Energy:

-1 2
 N                 -0.80841500   -1.14852800   -1.85876100
 C                 -1.04160500    0.24520600   -1.81662900
 C                 -0.10509000   -1.61319400   -0.75895000
 C                  0.14715600   -0.50911900    0.05256800
 C                 -0.41310000    0.64958100   -0.56454800
 C                 -0.16085700    1.75365600    0.24697200
 C                  0.77566400   -0.10474400    1.30464800
 N                  0.54247000    1.28899000    1.34678100
 O                 -1.64636300    0.86787900   -2.68928200
 O                  1.38042200   -0.72741600    2.17730100
 H                  0.85268900    1.89738000    2.09766700
 H                 -1.11864100   -1.75692000   -2.60964300
 C                 -0.15860300    4.16836800    1.03840100
 C                 -0.54259500    5.54753300    0.80393200
 C                 -1.26874300    5.90554600   -0.36952900
 H                 -1.55371200    6.93899000   -0.54015400
 C                 -1.59319900    4.91661400   -1.26640800
 H                 -2.14575300    5.16151800   -2.16802700
 C                 -1.22360100    3.56051800   -1.05025400
 H                 -1.50600900    2.81792300   -1.79266300
 C                 -0.51505600    3.14983400    0.07368600
 C                 -0.09748800    6.34307300    1.85358200
 H                 -0.21885800    7.41034600    1.98452100
 S                  0.71893100    5.37219400    2.98953900
 N                  0.51992200    3.93996300    2.17034200
 C                 -0.10735000   -4.02790700   -1.55037500
 C                  0.27663600   -5.40707400   -1.31590300
 C                  1.00278200   -5.76508700   -0.14244200
 H                  1.28774700   -6.79853100    0.02818800
 C                  1.32724200   -4.77615400    0.75443500
 H                  1.87979500   -5.02105900    1.65605400
 C                  0.95764900   -3.42005700    0.53827900
 H                  1.24005600   -2.67746200    1.28068800
 C                  0.24910600   -3.00937300   -0.58566200
 C                 -0.16847300   -6.20261400   -2.36555300
 H                 -0.04710900   -7.26988700   -2.49648800
 S                 -0.98487900   -5.23173100   -3.50151600
 N                 -0.78586700   -3.79950100   -2.68232100

 1 2 1.0 3 1.0 12 1.0
 2 5 1.0 9 2.0
 3 4 1.5 34 1.0
 4 5 1.5 7 1.0
 5 6 1.5
 6 8 1.0 21 1.0
 7 8 1.0 10 2.0
 8 11 1.0
 9
 10
 11
 12
 13 14 1.0 21 1.5 25 1.5
 14 15 1.5 22 1.5
 15 16 1.0 17 2.0
 16
 17 18 1.0 19 1.5
 18
 19 20 1.0 21 1.5
 20
 21
 22 23 1.0 24 1.0
 23
 24 25 1.0
 25
 26 27 1.0 34 1.5 38 1.5
 27 28 1.5 35 1.5
 28 29 1.0 30 2.0
 29
 30 31 1.0 32 1.5
 31
 32 33 1.0 34 1.5
 33
 34
 35 36 1.0 37 1.0
 36
 37 38 1.0
 38

