%chk=SUB-12-OPT-FREQ.chk
%nprocshared=24
%mem=5500MB
# opt=tight freq b3lyp/6-31+g(d,p) geom=connectivity

Energy:

0 1
 N                  1.21454800   -1.73409500    0.05973700
 C                 -0.20903600   -1.80840900   -0.01889900
 C                  1.68652100   -0.42993200   -0.01972800
 C                  0.59712200    0.40926400   -0.13113400
 C                 -0.59711500   -0.40979000   -0.13094300
 C                 -1.68651000    0.42939000   -0.01969000
 C                  0.20899500    1.80788900   -0.01912400
 N                 -1.21456600    1.73357400    0.05939800
 O                 -0.83108400   -2.86166500   -0.00200600
 O                  0.83105400    2.86115500   -0.00213800
 H                 -1.79083000    2.55852100   -0.03699600
 H                  1.79074400   -2.55901800   -0.03723500
 C                 -6.04947800   -1.39718300   -1.21792500
 C                 -5.12978100   -0.61049000   -0.51521500
 C                 -3.74766800   -0.74664700   -0.77901200
 C                 -3.26356200   -1.63705300   -1.73650000
 C                 -4.19916300   -2.41001200   -2.42579300
 C                 -5.57628700   -2.29724000   -2.17109500
 H                 -7.11437200   -1.30367600   -1.02645000
 H                 -2.20522500   -1.75099100   -1.92692100
 H                 -3.84814500   -3.11993100   -3.16833200
 H                 -6.27624600   -2.91749800   -2.72240000
 N                 -3.04113500    0.17697000    0.03149200
 C                 -3.98215900    0.88375500    0.81836700
 C                 -5.27873300    0.41685900    0.49888000
 C                 -3.77142800    1.84116400    1.81459300
 C                 -6.38830700    0.94768400    1.16590100
 C                 -4.89451000    2.35804600    2.46477000
 H                 -2.77661400    2.16461500    2.09822300
 C                 -6.19053200    1.92407400    2.14157900
 H                 -7.38919000    0.59719700    0.93205400
 H                 -4.75600700    3.10402000    3.24136100
 H                 -7.04321100    2.34458400    2.66552600
 C                  6.38865900   -0.94758800    1.16498700
 C                  5.27883900   -0.41677600    0.49835700
 C                  3.98250700   -0.88460400    0.81732900
 C                  3.77221600   -1.84289400    1.81281400
 C                  4.89551600   -2.35973200    2.46263700
 C                  6.19134300   -1.92488000    2.13983600
 H                  7.38935100   -0.59634000    0.93146400
 H                  2.77757800   -2.16702800    2.09623600
 H                  4.75734900   -3.10637300    3.23864400
 H                  7.04418500   -2.34540000    2.66350800
 N                  3.04116200   -0.17773400    0.03078800
 C                  3.74733500    0.74705500   -0.77869900
 C                  5.12950000    0.61137800   -0.51484600
 C                  3.26300200    1.63790300   -1.73565300
 C                  6.04891700    1.39903400   -1.21680900
 C                  4.19833700    2.41185500   -2.42420700
 H                  2.20467000    1.75147200   -1.92623100
 C                  5.57546000    2.29959400   -2.16937900
 H                  7.11382900    1.30589300   -1.02524100
 H                  3.84706300    3.12213100   -3.16628400
 H                  6.27522500    2.92061400   -2.72007300

 1 2 1.0 3 1.0 12 1.0
 2 5 1.0 9 2.0
 3 4 2.0 44 1.5
 4 5 1.0 7 1.0
 5 6 2.0
 6 8 1.0 23 1.5
 7 8 1.0 10 2.0
 8 11 1.0
 9
 10
 11
 12
 13 14 1.5 18 1.5 19 1.0
 14 15 1.5 25 1.0
 15 16 1.5 23 1.0
 16 17 1.5 20 1.0
 17 18 1.5 21 1.0
 18 22 1.0
 19
 20
 21
 22
 23 24 1.0
 24 25 1.5 26 1.5
 25 27 1.5
 26 28 1.5 29 1.0
 27 30 1.5 31 1.0
 28 30 1.5 32 1.0
 29
 30 33 1.0
 31
 32
 33
 34 35 1.5 39 1.5 40 1.0
 35 36 1.5 46 1.0
 36 37 1.5 44 1.0
 37 38 1.5 41 1.0
 38 39 1.5 42 1.0
 39 43 1.0
 40
 41
 42
 43
 44 45 1.0
 45 46 1.5 47 1.5
 46 48 1.5
 47 49 1.5 50 1.0
 48 51 1.5 52 1.0
 49 51 1.5 53 1.0
 50
 51 54 1.0
 52
 53
 54

