%nprocshared=6
%chk=G:\Meu Drive\POS-DOC-IME\SUBSTITUINTES-DOADORES\DPP-substituido\DPP-SUB-2-OPT-FREQ.chk
# opt freq b3lyp/6-31+g(d,p) geom=connectivity polar

Energy:

0 1
 N                  1.76306000   -1.18283100    0.00009800
 C                  1.80969900    0.24998600   -0.00004300
 C                  0.47018600   -1.66716700    0.00004500
 C                 -0.39108600   -0.60673900   -0.00004400
 C                  0.39108600    0.60673900    0.00000000
 C                 -0.47018600    1.66716700    0.00003700
 C                 -1.80969900   -0.24998600   -0.00014700
 N                 -1.76306000    1.18283100   -0.00000700
 O                  2.84314200    0.89885600   -0.00003400
 O                 -2.84314300   -0.89885600    0.00001700
 H                 -2.60337200    1.74284900    0.00038700
 H                  2.60337300   -1.74284900   -0.00014300
 C                 -0.18892937    3.18126564    0.00013234
 C                 -1.23527548    4.07818988    0.00015469
 C                  1.15106361    3.64594973    0.00019579
 C                 -0.99477488    5.48019923    0.00021786
 H                 -2.26291354    3.72346245    0.00012335
 C                  1.41736399    4.99816063    0.00029027
 H                  1.96797691    2.93018471    0.00011337
 C                  0.36045648    5.95015660    0.00028804
 C                 -2.05171716    6.43211539    0.00021962
 H                  2.44391101    5.35605225    0.00034774
 C                  0.60103064    7.35212478    0.00035720
 C                 -1.78533253    7.78434281    0.00031111
 H                 -3.07824800    6.07421986    0.00016516
 H                  1.62865969    7.70683850    0.00039254
 C                 -0.44539123    8.24901109    0.00037455
 H                 -2.60217767    8.50019815    0.00039253
 H                 -0.24713214    9.31691396    0.00044279
 C                  0.18893075   -3.18126590    0.00008769
 C                 -1.10972049   -3.64258814    0.00003348
 C                  1.27265335   -4.09617452    0.00018405
 C                 -1.38875898   -5.03743878    0.00009627
 H                 -1.94141351   -2.94247512   -0.00005760
 C                  1.03557736   -5.45381409    0.00021425
 H                  2.29211865   -3.72153149    0.00029019
 C                 -0.29270831   -5.96274137    0.00018771
 C                 -2.71704845   -5.54627909    0.00006571
 H                  1.86511579   -6.15648840    0.00027935
 C                 -0.57166336   -7.35757999    0.00024449
 C                 -2.95405175   -6.90396432    0.00009893
 H                 -3.54657037   -4.84360693   -0.00000238
 H                  0.26002617   -8.05767699    0.00033158
 C                 -1.87037169   -7.81883964    0.00019528
 H                 -3.97348586   -7.27871613   -0.00000621
 H                 -2.06884808   -8.88670214    0.00022438

 1 2 1.0 3 1.5 12 1.0
 2 5 1.0 9 2.0
 3 4 2.0 30 1.0
 4 5 1.5 7 1.0
 5 6 2.0
 6 8 1.5 13 1.0
 7 8 1.0 10 2.0
 8 11 1.0
 9
 10
 11
 12
 13 14 2.0 15 1.5
 14 16 1.5 17 1.0
 15 18 2.0 19 1.0
 16 20 1.5 21 1.5
 17
 18 20 1.5 22 1.0
 19
 20 23 1.5
 21 24 2.0 25 1.0
 22
 23 26 1.0 27 2.0
 24 27 1.5 28 1.0
 25
 26
 27 29 1.0
 28
 29
 30 31 2.0 32 1.5
 31 33 1.5 34 1.0
 32 35 2.0 36 1.0
 33 37 1.5 38 1.5
 34
 35 37 1.5 39 1.0
 36
 37 40 1.5
 38 41 2.0 42 1.0
 39
 40 43 1.0 44 2.0
 41 44 1.5 45 1.0
 42
 43
 44 46 1.0
 45
 46

