%nprocshared=6
%chk=G:\Meu Drive\POS-DOC-IME\SUBSTITUINTES-DOADORES\DPP-substituido\DPP-SUB-2-CATION.chk
# opt freq b3lyp/6-31+g(d,p) geom=connectivity

Energy:

1 2
 N                  1.12974500    2.22891600    0.00010500
 C                 -0.28729000    2.18585500    0.00010600
 C                  1.72323000    0.97115100   -0.00000600
 C                  0.68181500    0.05285100   -0.00005000
 C                 -0.57066000    0.75348100    0.00002600
 C                 -1.60889400   -0.16860900   -0.00001300
 C                  0.40494100   -1.37650800   -0.00014400
 N                 -1.01011000   -1.42496200   -0.00013200
 O                 -0.99057100    3.19182000    0.00021200
 O                  1.11752900   -2.37837800   -0.00025000
 H                 -1.49268100   -2.31034100   -0.00011700
 H                  1.61418800    3.11334900    0.00010900
 C                 -3.05287300    0.01132000    0.00002100
 C                 -3.92535600   -1.07311200    0.00000500
 C                 -3.59624300    1.33561400    0.00006200
 C                 -5.33043700   -0.89673000    0.00004200
 H                 -3.55354300   -2.09400500   -0.00004900
 C                 -4.95535700    1.52948700    0.00010100
 H                 -2.92197600    2.18647600    0.00005000
 C                 -5.86430100    0.43405200    0.00009500
 C                 -6.22995000   -2.00047100    0.00002800
 H                 -5.35374900    2.54062200    0.00013200
 C                 -7.27318700    0.60879400    0.00013400
 C                 -7.59264400   -1.79747600    0.00006600
 H                 -5.82444800   -3.00911600   -0.00001400
 H                 -7.67570100    1.61828900    0.00017400
 C                 -8.11939200   -0.48069600    0.00012100
 H                 -8.26946400   -2.64670800    0.00005500
 H                 -9.19538300   -0.33353100    0.00015100
 C                  3.16593900    0.78545800   -0.00003700
 C                  3.69778900   -0.50224200    0.00002500
 C                  4.06120800    1.90121100   -0.00012300
 C                  5.09709300   -0.71769100   -0.00000700
 H                  3.03262700   -1.36210500    0.00011500
 C                  5.42158500    1.71467300   -0.00015600
 H                  3.67790300    2.91665300   -0.00015300
 C                  5.98546800    0.40784600   -0.00010200
 C                  5.64756000   -2.03122900    0.00005500
 H                  6.08683800    2.57396700   -0.00021900
 C                  7.38642200    0.17981400   -0.00013500
 C                  7.01235400   -2.21994000    0.00002100
 H                  4.96988100   -2.88034500    0.00013100
 H                  8.05905000    1.03364900   -0.00020600
 C                  7.88909800   -1.10511400   -0.00007500
 H                  7.42283400   -3.22528000    0.00006900
 H                  8.96299000   -1.26751300   -0.00010100

 1 2 1.0 3 1.0 12 1.0
 2 5 1.0 9 2.0
 3 4 1.5 30 1.0
 4 5 1.5 7 1.0
 5 6 1.5
 6 8 1.0 13 1.0
 7 8 1.0 10 2.0
 8 11 1.0
 9
 10
 11
 12
 13 14 1.5 15 1.5
 14 16 1.5 17 1.0
 15 18 2.0 19 1.0
 16 20 1.5 21 1.5
 17
 18 20 1.5 22 1.0
 19
 20 23 1.5
 21 24 2.0 25 1.0
 22
 23 26 1.0 27 2.0
 24 27 1.5 28 1.0
 25
 26
 27 29 1.0
 28
 29
 30 31 1.5 32 1.5
 31 33 1.5 34 1.0
 32 35 2.0 36 1.0
 33 37 1.5 38 1.5
 34
 35 37 1.5 39 1.0
 36
 37 40 1.5
 38 41 2.0 42 1.0
 39
 40 43 1.0 44 2.0
 41 44 1.5 45 1.0
 42
 43
 44 46 1.0
 45
 46

