%nprocshared=6
%chk=G:\Meu Drive\POS-DOC-IME\SUBSTITUINTES-DOADORES\DPP-substituido\DPP-SUB-6\DPP-SUB-6-ANION.chk
# opt=tight freq b3lyp/6-31+g(d,p) geom=connectivity

Energy:

-1 2
 N                 -1.60520400   -1.39151300    0.00002600
 C                 -0.24991700   -1.79776300    0.00001400
 C                 -1.75605100   -0.01349400    0.00000500
 C                 -0.47527500    0.53181800   -0.00000800
 C                  0.47527300   -0.53181500    0.00000000
 C                  1.75605100    0.01349400   -0.00001400
 C                  0.24991700    1.79776600   -0.00003700
 N                  1.60520600    1.39151400   -0.00003900
 O                  0.11644600   -2.97110400    0.00003900
 O                 -0.11644600    2.97110600   -0.00005000
 H                  2.38599000    2.03852100   -0.00006200
 H                 -2.38598000   -2.03852800    0.00004000
 C                  4.28957700    0.10919700   -0.00003000
 C                  5.56312600   -0.58884500   -0.00002200
 C                  5.61093700   -2.01104100    0.00000500
 H                  6.56948700   -2.51765400    0.00001400
 C                  4.41595200   -2.69094600    0.00001900
 H                  4.41420000   -3.77643200    0.00003400
 C                  3.15968400   -2.02114500    0.00001400
 H                  2.25084300   -2.61791600    0.00002500
 C                  3.05343400   -0.63422300   -0.00001000
 S                  6.03815400    1.76399300   -0.00006200
 N                  4.42189000    1.44162200   -0.00005700
 N                  6.62206900    0.23273100   -0.00004400
 C                 -5.56312700    0.58884500    0.00003500
 C                 -4.28957800   -0.10919900    0.00002800
 C                 -3.05343200    0.63422300    0.00001000
 C                 -3.15968300    2.02114400   -0.00000200
 H                 -2.25084300    2.61791600   -0.00002000
 C                 -4.41595100    2.69094500    0.00000500
 H                 -4.41420000    3.77643100   -0.00000400
 C                 -5.61093600    2.01104100    0.00002400
 H                 -6.56948500    2.51765700    0.00002600
 S                 -6.03815500   -1.76399500    0.00006000
 N                 -6.62207100   -0.23273000    0.00005300
 N                 -4.42189000   -1.44162300    0.00004000

 1 2 1.0 3 1.0 12 1.0
 2 5 1.0 9 2.0
 3 4 1.5 27 1.0
 4 5 1.5 7 1.0
 5 6 1.5
 6 8 1.0 21 1.0
 7 8 1.0 10 2.0
 8 11 1.0
 9
 10
 11
 12
 13 14 1.0 21 1.5 23 1.5
 14 15 1.5 24 1.5
 15 16 1.0 17 2.0
 16
 17 18 1.0 19 1.5
 18
 19 20 1.0 21 1.5
 20
 21
 22 23 1.0 24 1.0
 23
 24
 25 26 1.0 32 1.5 35 1.5
 26 27 1.5 36 1.5
 27 28 1.5
 28 29 1.0 30 1.5
 29
 30 31 1.0 32 2.0
 31
 32 33 1.0
 33
 34 35 1.0 36 1.0
 35
 36

