%mem=4Gb
%chk=DPP-SUB-7-TD-DFT.chk
# td=(nstates=10) cam-b3lyp/6-31+g(d,p) geom=connectivity

Energy:

0 1
 N                  1.62671200    1.35843100   -0.69949300
 C                  0.27912600    1.80034700   -0.69246800
 C                  1.74551200   -0.01481400   -0.67030400
 C                  0.47449000   -0.54714700   -0.65437600
 C                 -0.47449600    0.54715500   -0.65436800
 C                 -1.74551700    0.01482200   -0.67032100
 C                 -0.27913300   -1.80033900   -0.69250400
 N                 -1.62671800   -1.35842400   -0.69954100
 O                 -0.04348700    2.98381700   -0.72908900
 O                  0.04348200   -2.98380800   -0.72913500
 H                 -2.43526000   -1.97466500   -0.69754700
 H                  2.43524800    1.97467800   -0.69751500
 C                 -4.25035900   -0.13475700   -0.14279800
 C                 -5.27663100    0.54153700    0.66368900
 C                 -5.18107400    1.85756700    0.97674900
 H                 -5.93787300    2.34068800    1.58669000
 C                 -4.03998100    2.63631800    0.52036800
 H                 -3.98112100    3.67682300    0.82598300
 C                 -3.06266900    2.11648400   -0.24457500
 H                 -2.21155200    2.71590700   -0.55231000
 C                 -3.10474100    0.68535400   -0.73850700
 N                 -4.38732600   -1.39439200   -0.36595100
 C                  5.27663200   -0.54154100    0.66368900
 C                  4.25036200    0.13475400   -0.14279800
 C                  3.10473400   -0.68535300   -0.73849500
 C                  3.06265700   -2.11648000   -0.24455400
 H                  2.21153900   -2.71590200   -0.55228700
 C                  4.03996800   -2.63631400    0.52038900
 H                  3.98110300   -3.67681700    0.82601100
 C                  5.18106800   -1.85756800    0.97676000
 H                  5.93786900   -2.34068900    1.58669900
 N                  4.38733800    1.39438600   -0.36596300
 C                  5.56784500    1.97024000    0.23010800
 H                  5.28952600    2.75386600    0.94178800
 H                  6.20606100    2.41033200   -0.54250000
 C                 -5.56782400   -1.97025000    0.23013400
 H                 -6.20604000   -2.41036000   -0.54246400
 H                 -5.28949200   -2.75386400    0.94182200
 S                  6.51323500    0.62679400    1.12873300
 S                 -6.51322400   -0.62680300    1.12874500
 H                  3.34402800   -0.73868700   -1.81823500
 H                 -3.34404400    0.73867800   -1.81824600

 1 2 1.0 3 1.5 12 1.0
 2 5 1.0 9 2.0
 3 4 2.0 25 1.0
 4 5 1.0 7 1.0
 5 6 2.0
 6 8 1.5 21 1.0
 7 8 1.0 10 2.0
 8 11 1.0
 9
 10
 11
 12
 13 14 1.0 21 1.0 22 2.0
 14 15 2.0 40 1.0
 15 16 1.0 17 1.0
 16
 17 18 1.0 19 2.0
 18
 19 20 1.0 21 1.0
 20
 21 42 1.0
 22 36 1.0
 23 24 1.0 30 2.0 39 1.0
 24 25 1.0 32 2.0
 25 26 1.0 41 1.0
 26 27 1.0 28 2.0
 27
 28 29 1.0 30 1.0
 29
 30 31 1.0
 31
 32 33 1.0
 33 34 1.0 35 1.0 39 1.0
 34
 35
 36 37 1.0 38 1.0 40 1.0
 37
 38
 39
 40
 41
 42

