%chk=DPP-SUB-5B-TD-DFT.chk
# td=(nstates=10) cam-b3lyp/6-31+g(d,p) geom=connectivity

Energy:

0 1
 N                  1.45216700   -1.54860900   -0.16980300
 C                  0.05536700   -1.81311800   -0.24282300
 C                  1.74638100   -0.18471100   -0.20388500
 C                  0.52721400    0.47838900   -0.26305400
 C                 -0.52721400   -0.47838000   -0.26305500
 C                 -1.74638100    0.18471600   -0.20388700
 C                 -0.05537000    1.81312700   -0.24281900
 N                 -1.45217000    1.54861400   -0.16979600
 O                 -0.43188100   -2.93480500   -0.29664500
 O                  0.43187500    2.93481400   -0.29664400
 H                 -2.12318900    2.28616800   -0.32626600
 H                  2.12318700   -2.28616500   -0.32625700
 C                 -5.39784200   -0.60949800    0.02804700
 C                 -4.29340000    0.30873200    0.20110400
 C                 -4.55856300    1.60807700    0.72250500
 H                 -3.75394100    2.30213300    0.93639800
 C                 -5.85611300    1.96850800    1.00772100
 H                 -6.05800100    2.95568900    1.41219600
 C                 -6.94477600    1.06860000    0.80013400
 H                 -7.95234400    1.39727000    1.03598100
 C                 -6.73130300   -0.20214200    0.32798300
 C                 -3.08435300   -0.32788900   -0.16216000
 S                 -3.46107700   -1.95844500   -0.62984000
 N                 -5.08876800   -1.83846900   -0.41351700
 C                  5.39784300    0.60949400    0.02804900
 C                  4.29339900   -0.30873300    0.20111100
 C                  4.55856100   -1.60807900    0.72250900
 H                  3.75394000   -2.30213500    0.93640500
 C                  5.85611200   -1.96851400    1.00771900
 H                  6.05799800   -2.95569600    1.41218900
 C                  6.94477600   -1.06860700    0.80013000
 H                  7.95234400   -1.39728100    1.03597400
 C                  6.73130300    0.20213600    0.32798300
 C                  3.08435300    0.32789000   -0.16215400
 S                  3.46108100    1.95844300   -0.62983800
 N                  5.08877200    1.83846400   -0.41352200
 H                 -7.54068300   -0.90928000    0.18202200
 H                  7.54068400    0.90927300    0.18202100

 1 2 1.0 3 1.0 12 1.0
 2 5 1.0 9 2.0
 3 4 1.5 34 1.5
 4 5 1.5 7 1.0
 5 6 1.5
 6 8 1.0 22 1.5
 7 8 1.0 10 2.0
 8 11 1.0
 9
 10
 11
 12
 13 14 1.5 21 1.5 24 1.5
 14 15 1.5 22 1.5
 15 16 1.0 17 2.0
 16
 17 18 1.0 19 1.5
 18
 19 20 1.0 21 2.0
 20
 21 37 1.0
 22 23 1.0
 23 24 1.0
 24
 25 26 1.5 33 1.5 36 1.5
 26 27 1.5 34 1.5
 27 28 1.0 29 2.0
 28
 29 30 1.0 31 1.5
 30
 31 32 1.0 33 2.0
 32
 33 38 1.0
 34 35 1.0
 35 36 1.0
 36
 37
 38

