%nprocshared=6
%chk=G:\Meu Drive\POS-DOC-IME\SUBSTITUINTES-DOADORES\DPP-substituido\DPP-SUB-5b\DPP-SUB-5B-ANION-CONT.chk
# opt=tight freq b3lyp/6-31+g(d,p) geom=connectivity

Energy:

-1 2
 N                 -1.47978200    1.52177400   -0.07120400
 C                 -0.09888000    1.80541600   -0.13359600
 C                 -1.77180900    0.14430600   -0.11245200
 C                 -0.51193000   -0.48865500   -0.15396900
 C                  0.51193000    0.48865500   -0.15396900
 C                  1.77180900   -0.14430600   -0.11245100
 C                  0.09887900   -1.80541500   -0.13359500
 N                  1.47978200   -1.52177400   -0.07120100
 O                  0.36466200    2.95127500   -0.18394200
 O                 -0.36466200   -2.95127400   -0.18394200
 H                  2.15062800   -2.25171300   -0.25370400
 H                 -2.15062900    2.25171400   -0.25370000
 C                  5.42755700    0.63821500   -0.02863900
 C                  4.33028100   -0.28835800    0.14329100
 C                  4.61390800   -1.61518400    0.55594000
 H                  3.81144600   -2.31216000    0.77144300
 C                  5.92385300   -2.02219800    0.74072600
 H                  6.12997200   -3.03852000    1.06400800
 C                  7.00074600   -1.11922100    0.52796000
 H                  8.02131800   -1.46462500    0.67449100
 C                  6.76789500    0.18732100    0.15833500
 C                  3.08339900    0.37003300   -0.09764700
 S                  3.45328400    2.04682900   -0.46643500
 N                  5.11917300    1.90523300   -0.34784800
 C                 -5.42755600   -0.63821600   -0.02863700
 C                 -4.33028100    0.28835800    0.14328900
 C                 -4.61390900    1.61518500    0.55593600
 H                 -3.81144600    2.31216200    0.77143700
 C                 -5.92385400    2.02219800    0.74072200
 H                 -6.12997300    3.03852100    1.06400300
 C                 -7.00074700    1.11922100    0.52795900
 H                 -8.02131800    1.46462500    0.67449000
 C                 -6.76789500   -0.18732200    0.15833600
 C                 -3.08339900   -0.37003300   -0.09764700
 S                 -3.45328400   -2.04683000   -0.46643200
 N                 -5.11917200   -1.90523400   -0.34784400
 H                  7.57862500    0.89456500    0.01189600
 H                 -7.57862500   -0.89456600    0.01189900

 1 2 1.0 3 1.0 12 1.0
 2 5 1.0 9 2.0
 3 4 1.5 34 1.5
 4 5 1.5 7 1.0
 5 6 1.5
 6 8 1.0 22 1.5
 7 8 1.0 10 2.0
 8 11 1.0
 9
 10
 11
 12
 13 14 1.5 21 1.5 24 1.5
 14 15 1.5 22 1.5
 15 16 1.0 17 2.0
 16
 17 18 1.0 19 1.5
 18
 19 20 1.0 21 2.0
 20
 21 37 1.0
 22 23 1.0
 23 24 1.0
 24
 25 26 1.5 33 1.5 36 1.5
 26 27 1.5 34 1.5
 27 28 1.0 29 2.0
 28
 29 30 1.0 31 1.5
 30
 31 32 1.0 33 2.0
 32
 33 38 1.0
 34 35 1.0
 35 36 1.0
 36
 37
 38

