%nprocshared=6
%chk=G:\Meu Drive\POS-DOC-IME\SUBSTITUINTES-DOADORES\DPP-substituido\DPP-SUB-5b\DPP-SUB-5B-CATION-cont.chk
# opt=tight freq b3lyp/6-31+g(d,p) geom=connectivity

Energy:

1 2
 N                  1.46136800   -1.55966300   -0.08181200
 C                  0.05866900   -1.81145100   -0.12619400
 C                  1.77040200   -0.21550800   -0.10374600
 C                  0.51653900    0.46278700   -0.14975800
 C                 -0.51653900   -0.46278700   -0.14975900
 C                 -1.77040200    0.21550800   -0.10374500
 C                 -0.05866900    1.81145100   -0.12619100
 N                 -1.46136800    1.55966300   -0.08181000
 O                 -0.44693800   -2.91600200   -0.14914000
 O                  0.44693800    2.91600200   -0.14913600
 H                 -2.12346300    2.31716100   -0.17144200
 H                  2.12346300   -2.31716000   -0.17144400
 C                 -5.39484900   -0.64429300   -0.01225000
 C                 -4.33453700    0.32664300    0.12358300
 C                 -4.68082300    1.65781200    0.44857100
 H                 -3.93388900    2.42344200    0.62159300
 C                 -6.01842000    1.99232700    0.59474100
 H                 -6.28056300    3.01454100    0.84876500
 C                 -7.05478700    1.03624800    0.43209100
 H                 -8.08681800    1.34746000    0.55436500
 C                 -6.75896900   -0.27630600    0.13771000
 C                 -3.07574300   -0.31575100   -0.07446300
 S                 -3.38637500   -2.02291100   -0.36282900
 N                 -5.01074000   -1.90697900   -0.27555100
 C                  5.39485000    0.64429300   -0.01225000
 C                  4.33453700   -0.32664300    0.12358300
 C                  4.68082200   -1.65781300    0.44857000
 H                  3.93388900   -2.42344200    0.62159100
 C                  6.01841900   -1.99232800    0.59474000
 H                  6.28056300   -3.01454200    0.84876200
 C                  7.05478700   -1.03624900    0.43209000
 H                  8.08681700   -1.34746100    0.55436300
 C                  6.75896900    0.27630600    0.13771000
 C                  3.07574400    0.31575100   -0.07446300
 S                  3.38637500    2.02291100   -0.36282700
 N                  5.01074000    1.90697900   -0.27554900
 H                 -7.52583400   -1.03456900    0.02488900
 H                  7.52583500    1.03456800    0.02489000

 1 2 1.0 3 1.5 12 1.0
 2 5 1.0 9 2.0
 3 4 1.5 34 1.5
 4 5 1.5 7 1.0
 5 6 1.5
 6 8 1.5 22 1.5
 7 8 1.0 10 2.0
 8 11 1.0
 9
 10
 11
 12
 13 14 1.5 21 1.5 24 1.5
 14 15 1.5 22 1.5
 15 16 1.0 17 1.5
 16
 17 18 1.0 19 1.5
 18
 19 20 1.0 21 2.0
 20
 21 37 1.0
 22 23 1.0
 23 24 1.0
 24
 25 26 1.5 33 1.5 36 1.5
 26 27 1.5 34 1.5
 27 28 1.0 29 1.5
 28
 29 30 1.0 31 1.5
 30
 31 32 1.0 33 2.0
 32
 33 38 1.0
 34 35 1.0
 35 36 1.0
 36
 37
 38

