%nprocshared=6
%chk=G:\Meu Drive\POS-DOC-IME\SUBSTITUINTES-DOADORES\DPP-substituido\DPP-SUB-5b\DPP-SUB-5B-OPT-FREQ.chk
# opt=tight freq b3lyp/6-31+g(d,p) geom=connectivity

Energy:

0 1
 N                 -1.45049803    1.55481311   -0.24995597
 C                 -0.05240885    1.81708800   -0.31383462
 C                 -1.74359700    0.19063600   -0.21714800
 C                 -0.52404701   -0.47367555   -0.21986737
 C                  0.53089502    0.48307820   -0.25119106
 C                  1.74655480   -0.17546866   -0.12612444
 C                  0.05691658   -1.80514058   -0.11300034
 N                  1.45194489   -1.53593651   -0.02576059
 O                  0.43379758    2.93486406   -0.42166642
 O                 -0.43006365   -2.92827693   -0.11468574
 H                  2.12817939   -2.27921301   -0.12348416
 H                 -2.11863460    2.28153076   -0.46054200
 C                  5.38722545    0.63401471    0.19717572
 C                  4.26902396   -0.25911274    0.40790640
 C                  4.49351531   -1.49483392    1.08101818
 H                  3.67104499   -2.15994670    1.31868923
 C                  5.77017239   -1.82309031    1.47700166
 H                  5.94254556   -2.76057200    1.99691657
 C                  6.87518465   -0.95186266    1.23429965
 H                  7.86548003   -1.25389314    1.56138941
 C                  6.69877211    0.25977864    0.61437256
 C                  3.08661906    0.33421658   -0.08862489
 S                  3.49688556    1.90354167   -0.70615122
 N                  5.11059545    1.80771186   -0.39217105
 C                 -5.39394000   -0.59995300    0.04209000
 C                 -4.28497900    0.31166600    0.22095500
 C                 -4.53956800    1.59999500    0.77406100
 H                 -3.73000800    2.28701600    0.99207800
 C                 -5.83227600    1.95709300    1.08422300
 H                 -6.02629700    2.93557200    1.51296500
 C                 -6.92598200    1.06453500    0.87116600
 H                 -7.92947400    1.39033000    1.12750600
 C                 -6.72227800   -0.19600300    0.36833700
 C                 -3.08236700   -0.31991500   -0.17088400
 S                 -3.46904400   -1.93885600   -0.66888600
 N                 -5.09364800   -1.81978900   -0.42988900
 H                  7.52086264    0.94502274    0.43817004
 H                 -7.53550400   -0.89769600    0.21754900

 1 2 1.0 3 1.0 12 1.0
 2 5 1.0 9 2.0
 3 4 1.5 34 1.5
 4 5 1.5 7 1.0
 5 6 1.5
 6 8 1.0 22 1.5
 7 8 1.0 10 2.0
 8 11 1.0
 9
 10
 11
 12
 13 14 1.5 21 1.5 24 1.5
 14 15 1.5 22 1.5
 15 16 1.0 17 2.0
 16
 17 18 1.0 19 1.5
 18
 19 20 1.0 21 2.0
 20
 21 37 1.0
 22 23 1.0
 23 24 1.0
 24
 25 26 1.5 33 1.5 36 1.5
 26 27 1.5 34 1.5
 27 28 1.0 29 2.0
 28
 29 30 1.0 31 1.5
 30
 31 32 1.0 33 2.0
 32
 33 38 1.0
 34 35 1.0
 35 36 1.0
 36
 37
 38

