%nprocshared=6
%chk=G:\Meu Drive\POS-DOC-IME\SUBSTITUINTES-DOADORES\DPP-substituido\DPP-SUB-3-CATION.chk
# opt freq b3lyp/6-31+g(d,p) geom=connectivity

Energy:

1 2
 N                 -0.98539400   -1.77733900    0.00556800
 C                  0.42620300   -1.67162900    0.07354000
 C                 -1.63249600   -0.54638600   -0.07092000
 C                 -0.63064000    0.41459300   -0.05473700
 C                  0.64749600   -0.23460400    0.03364000
 C                  1.64995600    0.72620300    0.05225200
 C                 -0.40798300    1.85265700   -0.09348000
 N                  1.00453400    1.95720400   -0.02356600
 O                  1.17388300   -2.64613300    0.14577600
 O                 -1.15378800    2.82728900   -0.16640400
 H                  1.45196600    2.86087100   -0.03460700
 H                 -1.43175100   -2.68142000    0.01518100
 C                  5.90043400    0.31280300    0.29005300
 C                  5.07215200   -0.82057200    0.28274300
 C                  3.68973800   -0.67300500    0.20469000
 H                  3.06049200   -1.55884100    0.19987400
 C                  3.09409000    0.60252500    0.13215600
 C                  3.94537800    1.73127700    0.14129700
 H                  3.53823900    2.73644200    0.08865100
 C                  5.32133300    1.59256400    0.21864000
 H                  5.97269600    2.46013100    0.22646200
 H                  5.48907800   -1.81867100    0.33731600
 O                  7.25627000    0.28023400    0.36390700
 C                  7.92579700   -0.98706000    0.44709400
 H                  7.67156400   -1.59136500   -0.43503700
 H                  7.58242000   -1.51969200    1.34371400
 C                  9.42473100   -0.73030200    0.51299800
 H                  9.91362600   -1.69569800    0.70356200
 H                  9.63467700   -0.09538700    1.38361900
 C                 10.01135000   -0.09474500   -0.75456300
 H                  9.50394400    0.85735000   -0.94718400
 H                  9.79304900   -0.74240300   -1.61523200
 C                 11.52354100    0.13515300   -0.65685400
 H                 12.06099200   -0.80668700   -0.49341200
 H                 11.91651000    0.58725400   -1.57359500
 H                 11.76894400    0.80535300    0.17543100
 C                 -5.88552100   -0.14922300   -0.29873500
 C                 -5.30767000   -1.42601100   -0.22236100
 C                 -3.92147100   -1.55069100   -0.14836300
 H                 -3.51067500   -2.55416200   -0.09054200
 C                 -3.07731400   -0.42516900   -0.14796900
 C                 -3.67954200    0.85448100   -0.22631400
 H                 -3.05322100    1.74221400   -0.22775000
 C                 -5.05550200    0.98637800   -0.30046100
 H                 -5.51673200    1.96663800   -0.36103100
 H                 -5.91937200   -2.31959300   -0.22006200
 O                 -7.22074600    0.08922800   -0.37492700
 C                 -8.13561300   -1.01562100   -0.37197200
 H                 -7.99708300   -1.60027500    0.54872000
 H                 -7.92311700   -1.66541400   -1.23158200
 C                 -9.55183800   -0.46312700   -0.45248400
 H                -10.23077700   -1.31957000   -0.56626400
 H                 -9.64458900    0.13466200   -1.36850300
 C                 -9.97177100    0.37225200    0.76439200
 H                 -9.28140600    1.21579200    0.87617500
 H                 -9.86661800   -0.23756500    1.67272600
 C                -11.41028900    0.89055000    0.65905100
 H                -12.12726100    0.06489000    0.57562700
 H                -11.68467100    1.48133500    1.53931300
 H                -11.53714800    1.53007400   -0.22238800

 1 2 1.0 3 1.0 12 1.0
 2 5 1.0 9 2.0
 3 4 1.5 41 1.0
 4 5 1.5 7 1.0
 5 6 1.5
 6 8 1.0 17 1.0
 7 8 1.0 10 2.0
 8 11 1.0
 9
 10
 11
 12
 13 14 1.5 20 1.5 23 1.0
 14 15 1.5 22 1.0
 15 16 1.0 17 1.5
 16
 17 18 1.5
 18 19 1.0 20 2.0
 19
 20 21 1.0
 21
 22
 23 24 1.0
 24 25 1.0 26 1.0 27 1.0
 25
 26
 27 28 1.0 29 1.0 30 1.0
 28
 29
 30 31 1.0 32 1.0 33 1.0
 31
 32
 33 34 1.0 35 1.0 36 1.0
 34
 35
 36
 37 38 1.5 44 1.5 47 1.0
 38 39 1.5 46 1.0
 39 40 1.0 41 1.5
 40
 41 42 1.5
 42 43 1.0 44 2.0
 43
 44 45 1.0
 45
 46
 47 48 1.0
 48 49 1.0 50 1.0 51 1.0
 49
 50
 51 52 1.0 53 1.0 54 1.0
 52
 53
 54 55 1.0 56 1.0 57 1.0
 55
 56
 57 58 1.0 59 1.0 60 1.0
 58
 59
 60

