%nprocshared=6
%chk=G:\Meu Drive\POS-DOC-IME\SUBSTITUINTES-DOADORES\DPP-substituido\DPP-SUB-3-OPT-FREQ.chk
# opt freq b3lyp/6-31+g(d,p) geom=connectivity polar

Energy:

0 1
 N                  1.89438670   -0.95343897   -0.24582907
 C                  1.67060854    0.51820963   -0.22349355
 C                  0.66953928   -1.58676388   -0.15695680
 C                 -0.30401966   -0.63646401   -0.08143997
 C                  0.16830351    0.61550675   -0.11618072
 C                 -0.82139323    1.55971825   -0.04787194
 C                 -1.80274820   -0.55126869    0.03096608
 N                 -2.03411063    0.91108808    0.05165962
 O                  2.51946946    1.44594146   -0.28158299
 O                 -2.64485034   -1.48265989    0.09312385
 H                 -2.92605820    1.35721649    0.12342923
 H                  2.78461827   -1.40561707   -0.31315691
 C                 -0.36106136    5.87443769   -0.15475822
 C                  0.77434789    5.05394926   -0.21614632
 C                  0.63372158    3.65801308   -0.17986797
 H                  1.49794951    3.02918961   -0.23141097
 C                 -0.64179982    3.08875511   -0.07954587
 C                 -1.77383157    3.91098505   -0.00922209
 H                 -2.74625322    3.46945243    0.07278824
 C                 -1.63492726    5.30265840   -0.05047215
 H                 -2.50121631    5.92972845   -0.00439421
 H                  1.74944317    5.49170850   -0.29185550
 O                 -0.22648197    7.29638819   -0.20266900
 C                  1.03321220    7.67868618    0.34759794
 H                  1.82193216    7.25024256   -0.23346586
 H                  1.10362641    7.32956491    1.35708761
 C                  1.15091399    9.21079822    0.32681116
 H                  2.09800639    9.50100962    0.73235445
 H                  0.36554477    9.63659829    0.91532967
 C                  1.03472515    9.71365444   -1.12162229
 H                  0.08938145    9.41571740   -1.52789507
 H                  1.82270223    9.29497936   -1.71063561
 C                  1.14296421   11.24818175   -1.13532738
 H                  2.08816944   11.54302968   -0.72636783
 H                  1.06377200   11.60233354   -2.14202613
 H                  0.35314964   11.66678918   -0.54595244
 C                 -0.19467528   -5.84879857   -0.13561488
 C                  1.14351213   -5.41878223   -0.22110575
 C                  1.43725604   -4.04146195   -0.22258282
 H                  2.45040861   -3.70701563   -0.28362840
 C                  0.39522271   -3.10479167   -0.14491432
 C                 -0.93075200   -3.54007582   -0.05882291
 H                 -1.72175408   -2.81999295    0.00152029
 C                 -1.22586559   -4.90577381   -0.05194492
 H                 -2.24530485   -5.23295476    0.01823401
 H                  1.93509647   -6.13545667   -0.28486033
 O                 -0.53472031   -7.24049355   -0.13071331
 C                  0.39739402   -8.00642312   -0.89717010
 H                  1.36602987   -7.94885645   -0.44794944
 H                  0.44234811   -7.61900616   -1.89350055
 C                 -0.06990637   -9.47403812   -0.94140020
 H                  0.63082790  -10.05434530   -1.50599456
 H                 -1.03195695   -9.52506820   -1.40610168
 C                 -0.16604417  -10.03266593    0.48926043
 H                 -0.86310954   -9.44763164    1.05298886
 H                  0.79485775   -9.99066266    0.95605738
 C                 -0.64714499  -11.49350481    0.43295328
 H                  0.04880867  -12.07585071   -0.13572179
 H                 -0.71375560  -11.88461661    1.42660040
 H                 -1.61142669  -11.53496185   -0.03287875

 1 2 1.0 3 1.5 12 1.0
 2 5 1.0 9 2.0
 3 4 2.0 41 1.0
 4 5 1.5 7 1.0
 5 6 2.0
 6 8 1.5 17 1.0
 7 8 1.0 10 2.0
 8 11 1.0
 9
 10
 11
 12
 13 14 1.5 20 1.5 23 1.0
 14 15 1.5 22 1.0
 15 16 1.0 17 1.5
 16
 17 18 1.5
 18 19 1.0 20 1.5
 19
 20 21 1.0
 21
 22
 23 24 1.0
 24 25 1.0 26 1.0 27 1.0
 25
 26
 27 28 1.0 29 1.0 30 1.0
 28
 29
 30 31 1.0 32 1.0 33 1.0
 31
 32
 33 34 1.0 35 1.0 36 1.0
 34
 35
 36
 37 38 1.5 44 1.5 47 1.0
 38 39 1.5 46 1.0
 39 40 1.0 41 1.5
 40
 41 42 1.5
 42 43 1.0 44 1.5
 43
 44 45 1.0
 45
 46
 47 48 1.0
 48 49 1.0 50 1.0 51 1.0
 49
 50
 51 52 1.0 53 1.0 54 1.0
 52
 53
 54 55 1.0 56 1.0 57 1.0
 55
 56
 57 58 1.0 59 1.0 60 1.0
 58
 59
 60

