%nprocshared=6
%chk=G:\Meu Drive\POS-DOC-IME\SUBSTITUINTES-DOADORES\DPP-substituido\DPP-SUB-1-TD-DFT.chk
# td=(nstates=10) cam-b3lyp/6-31+g(d,p) geom=connectivity

Title Card Required

0 1
 N                  1.13958300    1.78419700    0.00000700
 C                 -0.27771900    1.79357300    0.00004000
 C                  1.68564400    0.50503400   -0.00004200
 C                  0.61260800   -0.37422900   -0.00003800
 C                 -0.61260800    0.37423500    0.00002100
 C                 -1.68564400   -0.50502900    0.00003200
 C                  0.27772000   -1.79356700   -0.00007300
 N                 -1.13958100   -1.78419200   -0.00003800
 O                 -0.94648300    2.82338800    0.00008500
 O                  0.94648600   -2.82338100   -0.00012900
 H                 -1.65766100   -2.64935400    0.00001700
 H                  1.65766300    2.64936000   -0.00002200
 C                 -3.12324300   -0.26657200    0.00008300
 C                 -3.61291000    1.05741800    0.00020300
 C                 -4.04904200   -1.33072600    0.00001600
 C                 -4.98499700    1.29774100    0.00025800
 H                 -2.91401300    1.88874100    0.00025000
 C                 -5.41927300   -1.08081300    0.00007200
 H                 -3.71244900   -2.36292000   -0.00008700
 C                 -5.89350800    0.23465000    0.00019500
 H                 -5.34529900    2.32207300    0.00035100
 H                 -6.11675100   -1.91302600    0.00001800
 H                 -6.96213800    0.42798300    0.00023900
 C                  3.12324300    0.26657400   -0.00008200
 C                  4.04904600    1.33072300   -0.00021600
 C                  3.61290300   -1.05741900    0.00002200
 C                  5.41927700    1.08080300   -0.00025200
 H                  3.71246000    2.36291900   -0.00028500
 C                  4.98498900   -1.29774800   -0.00001600
 H                  2.91400200   -1.88873800    0.00014500
 C                  5.89350500   -0.23466100   -0.00015500
 H                  6.11675800    1.91301400   -0.00035400
 H                  5.34528700   -2.32208200    0.00006700
 H                  6.96213400   -0.42800000   -0.00018200

 1 2 1.0 3 1.0 12 1.0
 2 5 1.0 9 2.0
 3 4 1.5 24 1.0
 4 5 1.5 7 1.0
 5 6 1.5
 6 8 1.0 13 1.0
 7 8 1.0 10 2.0
 8 11 1.0
 9
 10
 11
 12
 13 14 1.5 15 1.5
 14 16 1.5 17 1.0
 15 18 1.5 19 1.0
 16 20 1.5 21 1.0
 17
 18 20 1.5 22 1.0
 19
 20 23 1.0
 21
 22
 23
 24 25 1.5 26 1.5
 25 27 1.5 28 1.0
 26 29 1.5 30 1.0
 27 31 1.5 32 1.0
 28
 29 31 1.5 33 1.0
 30
 31 34 1.0
 32
 33
 34

