%nprocshared=6
%chk=G:\Meu Drive\POS-DOC-IME\SUBSTITUINTES-DOADORES\DPP-substituido\DPP-SUB-1-OPT-FREQ.chk
# opt freq b3lyp/6-31+g(d,p) geom=connectivity polar

Title Card Required

0 1
 N                  1.76306000   -1.18283100    0.00009800
 C                  1.80969900    0.24998600   -0.00004300
 C                  0.47018600   -1.66716700    0.00004500
 C                 -0.39108600   -0.60673900   -0.00004400
 C                  0.39108600    0.60673900    0.00000000
 C                 -0.47018600    1.66716700    0.00003700
 C                 -1.80969900   -0.24998600   -0.00014700
 N                 -1.76306000    1.18283100   -0.00000700
 O                  2.84314200    0.89885600   -0.00003400
 O                 -2.84314300   -0.89885600    0.00001700
 H                 -2.60337200    1.74284900    0.00038700
 H                  2.60337300   -1.74284900   -0.00014300
 C                 -0.18892937    3.18126564    0.00013234
 C                  1.12641759    3.64638260    0.00017542
 C                 -1.24913000    4.08764457    0.00006443
 C                  1.38141277    5.01758601    0.00083247
 H                  1.96203778    2.93155395    0.00100619
 C                 -0.99422726    5.45929845   -0.00027428
 H                 -2.28588990    3.72123237   -0.00014942
 C                  0.32077793    5.92437702    0.00024784
 H                  2.41815670    5.38427126    0.00150047
 H                 -1.83034893    6.17370349   -0.00074318
 H                  0.52207819    7.00547569    0.00070684
 C                  0.18893075   -3.18126590    0.00008769
 C                  1.24949602   -4.08772754    0.00018188
 C                 -1.12604619   -3.64643661    0.00014339
 C                  0.99504836   -5.45903270   -0.00035014
 H                  2.28608404   -3.72067660   -0.00063929
 C                 -1.38074195   -5.01812890    0.00060715
 H                 -1.96205625   -2.93214242    0.00024906
 C                 -0.32048183   -5.92443203    0.00022228
 H                  1.83094548   -6.17357605   -0.00090993
 H                 -2.41764585   -5.38460444    0.00106640
 H                 -0.52085884   -7.00570223   -0.00013812

 1 2 1.0 3 1.5 12 1.0
 2 5 1.0 9 2.0
 3 4 2.0 24 1.0
 4 5 1.5 7 1.0
 5 6 2.0
 6 8 1.5 13 1.0
 7 8 1.0 10 2.0
 8 11 1.0
 9
 10
 11
 12
 13 14 1.5 15 1.5
 14 16 1.5 17 1.0
 15 18 1.5 19 1.0
 16 20 1.5 21 1.0
 17
 18 20 1.5 22 1.0
 19
 20 23 1.0
 21
 22
 23
 24 25 1.5 26 1.5
 25 27 1.5 28 1.0
 26 29 1.5 30 1.0
 27 31 1.5 32 1.0
 28
 29 31 1.5 33 1.0
 30
 31 34 1.0
 32
 33
 34

