%chk=DPP-SUB-9-SCAN-180.chk
# opt=tight freq b3lyp/6-31+g(d,p) nosymm geom=connectivity

Energy:

0 1
 N                 -1.34243200    1.03198700   -2.64444900
 C                  0.07729700    0.95925100   -2.69180800
 C                 -1.86302100    0.64507800   -1.40817200
 C                 -0.78224400    0.36103700   -0.58783800
 C                  0.42183700    0.54170000   -1.34454800
 C                  1.51323600    0.35457800   -0.50806300
 C                 -0.41748900    0.08039900    0.80082000
 N                  1.00431700    0.05802300    0.75166700
 O                  0.74522100    1.20799400   -3.69138400
 O                 -1.05763500   -0.08541000    1.83145400
 H                  1.57610500   -0.10544000    1.56850900
 H                 -1.88845900    1.15027600   -3.48664300
 C                 -5.60312610    0.78546621   -1.47007708
 C                 -4.29892642    0.95265274   -2.03796018
 C                 -5.28638938    1.93879807   -3.91985321
 H                 -5.07169243    1.93428074   -4.99050528
 C                 -6.49038759    1.06887852   -3.60002925
 H                 -6.32740760    0.04236657   -3.95235584
 C                 -3.27638200    0.61392500   -1.16741200
 C                 -5.57609067    0.36068783   -0.17045640
 H                 -6.41883399    0.15572001    0.47342137
 S                 -3.94963078    0.12771903    0.38810727
 C                  3.95063000    0.23204400    0.16304000
 C                  5.25082300    0.38685700   -0.39663200
 C                  6.14740900    0.30561400    1.75196300
 H                  5.98268800    1.35394700    2.03477500
 C                  4.94635100   -0.54217200    2.14063900
 H                  4.74632800   -0.47390300    3.21189600
 C                  5.21638800    0.69186800   -1.73196700
 H                  6.06062200    0.85974300   -2.38522800
 C                  2.92293300    0.43177900   -0.74987300
 S                  3.59669300    0.80486000   -2.33240300
 O                 -6.73840343    1.05427863   -2.18203335
 O                 -4.09909554    1.43478424   -3.28399000
 H                 -5.46059836    2.96952058   -3.58487609
 H                 -7.39437980    1.47242970   -4.06044905
 O                  3.75336000   -0.06610400    1.48478200
 O                  6.39343800    0.22193000    0.34060500
 H                  5.10989100   -1.59124800    1.86449600
 H                  7.05239900   -0.06125000    2.24096600

 1 2 1.0 3 1.0 12 1.0
 2 5 1.0 9 2.0
 3 4 1.5 19 1.5
 4 5 1.5 7 1.0
 5 6 1.5
 6 8 1.0 31 1.5
 7 8 1.0 10 2.0
 8 11 1.0
 9
 10
 11
 12
 13 14 1.5 20 2.0 33 1.0
 14 19 2.0 34 1.0
 15 16 1.0 17 1.0 34 1.0 35 1.0
 16
 17 18 1.0 33 1.0 36 1.0
 18
 19 22 1.0
 20 21 1.0 22 1.0
 21
 22
 23 24 1.5 31 1.5 37 1.0
 24 29 2.0 38 1.0
 25 26 1.0 27 1.0 38 1.0 40 1.0
 26
 27 28 1.0 37 1.0 39 1.0
 28
 29 30 1.0 32 1.0
 30
 31 32 1.0
 32
 33
 34
 35
 36
 37
 38
 39
 40

