14
	Energy: -307976.2730383
N         -1.76306        1.18283        0.00010
C         -1.80970       -0.24999       -0.00004
C         -0.47019        1.66717        0.00005
C          0.39109        0.60674       -0.00004
C         -0.39109       -0.60674        0.00000
C          0.47019       -1.66717        0.00004
C          1.80970        0.24999       -0.00015
N          1.76306       -1.18283       -0.00001
O         -2.84314       -0.89886       -0.00003
O          2.84314        0.89886        0.00002
H         -0.27254        2.73117        0.00007
H          0.27254       -2.73117        0.00010
H          2.60337       -1.74285        0.00039
H         -2.60337        1.74285       -0.00014
