40
	Energy: -1193120.4500568
N          1.56525        1.42888       -0.30340
C          0.19560        1.80239       -0.38796
C          1.75847        0.04881       -0.33595
C          0.49301       -0.52026       -0.39523
C         -0.49296        0.52013       -0.39511
C         -1.75843       -0.04895       -0.33576
C         -0.19551       -1.80252       -0.38825
N         -1.56522       -1.42904       -0.30356
O         -0.18437        2.96736       -0.46719
O          0.18443       -2.96745       -0.46809
H         -2.28994       -2.10671       -0.49219
H          2.29009        2.10670       -0.49103
C          5.54980       -0.55459        0.05217
C          4.26041        0.11278        0.17888
C          3.07400       -0.56655       -0.31124
C          3.21430       -1.85858       -0.79862
H          2.33009       -2.39660       -1.12435
C          4.47905       -2.50140       -0.89608
H          4.52001       -3.50753       -1.30122
C          5.63100       -1.86566       -0.50721
H          6.59833       -2.35058       -0.59945
C          4.38948        1.33854        0.82113
H          3.62135        2.02524        1.14240
C          6.59173        0.20192        0.57188
H          7.64215       -0.05149        0.60710
S          6.02560        1.67731        1.22958
C         -4.26045       -0.11283        0.17907
C         -5.54976        0.55471        0.05240
C         -5.63079        1.86589       -0.50672
H         -6.59807        2.35094       -0.59889
C         -4.47875        2.50163       -0.89529
H         -4.51958        3.50787       -1.30017
C         -3.21408        1.85866       -0.79790
H         -2.32979        2.39669       -1.12342
C         -3.07393        0.56646       -0.31089
C         -6.59183       -0.20177        0.57188
H         -7.64222        0.05175        0.60702
C         -4.38972       -1.33863        0.82124
H         -3.62172       -2.02541        1.14262
S         -6.02593       -1.67731        1.22941
