38
	Energy: -1213248.8430185
N          1.45217       -1.54861       -0.16980
C          0.05537       -1.81312       -0.24282
C          1.74638       -0.18471       -0.20389
C          0.52721        0.47839       -0.26305
C         -0.52721       -0.47838       -0.26305
C         -1.74638        0.18472       -0.20389
C         -0.05537        1.81313       -0.24282
N         -1.45217        1.54861       -0.16980
O         -0.43188       -2.93480       -0.29664
O          0.43188        2.93481       -0.29664
H         -2.12319        2.28617       -0.32627
H          2.12319       -2.28617       -0.32626
C         -5.39784       -0.60950        0.02805
C         -4.29340        0.30873        0.20110
C         -4.55856        1.60808        0.72250
H         -3.75394        2.30213        0.93640
C         -5.85611        1.96851        1.00772
H         -6.05800        2.95569        1.41220
C         -6.94478        1.06860        0.80013
H         -7.95234        1.39727        1.03598
C         -6.73130       -0.20214        0.32798
C         -3.08435       -0.32789       -0.16216
S         -3.46108       -1.95845       -0.62984
N         -5.08877       -1.83847       -0.41352
C          5.39784        0.60949        0.02805
C          4.29340       -0.30873        0.20111
C          4.55856       -1.60808        0.72251
H          3.75394       -2.30213        0.93641
C          5.85611       -1.96851        1.00772
H          6.05800       -2.95570        1.41219
C          6.94478       -1.06861        0.80013
H          7.95234       -1.39728        1.03597
C          6.73130        0.20214        0.32798
C          3.08435        0.32789       -0.16215
S          3.46108        1.95844       -0.62984
N          5.08877        1.83846       -0.41352
H         -7.54068       -0.90928        0.18202
H          7.54068        0.90927        0.18202
