38
	Energy: -1213293.5187873
N          1.57277        1.42665        0.00015
C          0.21161        1.80416        0.00028
C          1.75511        0.05280       -0.00004
C          0.48872       -0.52241       -0.00003
C         -0.48872        0.52241        0.00016
C         -1.75511       -0.05280        0.00011
C         -0.21161       -1.80416       -0.00020
N         -1.57278       -1.42665       -0.00013
O         -0.17559        2.97158        0.00044
O          0.17558       -2.97158       -0.00040
H         -2.34793       -2.08224       -0.00016
H          2.34792        2.08225        0.00017
C         -4.27762       -0.19449        0.00018
C         -5.52795        0.46923        0.00032
C         -5.62777        1.86339        0.00050
H         -6.59260        2.35977        0.00061
C         -4.44189        2.59563        0.00057
H         -4.48341        3.68029        0.00071
C         -3.19130        1.96481        0.00044
H         -2.28881        2.56979        0.00050
C         -3.07331        0.56369        0.00024
N         -4.36056       -1.58109       -0.00001
C          5.52795       -0.46924       -0.00036
C          4.27762        0.19449       -0.00020
C          3.07332       -0.56369       -0.00021
C          3.19130       -1.96481       -0.00039
H          2.28881       -2.56979       -0.00041
C          4.44189       -2.59563       -0.00055
H          4.48340       -3.68029       -0.00068
C          5.62777       -1.86339       -0.00053
H          6.59260       -2.35977       -0.00066
N          4.36056        1.58109       -0.00003
C          5.59476        1.97694       -0.00006
H          5.88842        3.02034        0.00005
C         -5.59476       -1.97694       -0.00001
H         -5.88841       -3.02034       -0.00014
S          6.81651        0.71957       -0.00030
S         -6.81650       -0.71957        0.00020
