40
	Energy: -1286268.5627756
N         -1.35158        1.05356       -2.63549
C          0.06751        1.05398       -2.67242
C         -1.86225        0.72440       -1.38190
C         -0.77074        0.49534       -0.55509
C          0.42700        0.68795       -1.31149
C          1.51851        0.45890       -0.48468
C         -0.41124        0.12931        0.80585
N          1.00784        0.12975        0.76891
O          0.72995        1.31709       -3.67236
O         -1.07369       -0.13381        1.80578
H          1.57932       -0.09002        1.57271
H         -1.92305        1.27325       -3.43931
C         -5.59982        0.79239       -1.47279
C         -4.29875        0.93217       -2.03470
C         -5.28255        1.80823       -3.97474
H         -5.09064        1.77672       -5.04917
C         -6.50514        0.98007       -3.61171
H         -6.37189       -0.06043       -3.93687
C         -3.27201        0.67348       -1.13592
C         -5.56699        0.43918       -0.14940
H         -6.41186        0.27155        0.50303
S         -3.94711        0.26367        0.43678
C          3.95501        0.25107        0.16811
C          5.25609        0.39085       -0.39381
C          6.16141        0.20312        1.74510
H          6.02820        1.24363        2.07027
C          4.93882       -0.62502        2.10813
H          4.74692       -0.59349        3.18257
C          5.22325        0.74409       -1.71720
H          6.06811        0.91173       -2.36963
C          2.92827        0.50980       -0.73066
S          3.60336        0.91963       -2.30336
O         -6.74136        1.01425       -2.19650
O         -4.10034        1.27247       -3.34619
H         -5.41421        2.84985       -3.65651
H         -7.40197        1.39147       -4.07989
O          3.75662       -0.08924        1.47960
O          6.39762        0.16896        0.32989
H          5.07046       -1.66664        1.78990
H          7.05824       -0.20830        2.21326
