%chk=DPP-SUB-10-SCAN-180.chk
# opt=tight freq b3lyp/6-31+g(d,p) nosymm geom=connectivity

Energy:

0 1
 N                  0.59986200   -1.38474700    2.39799800
 C                  0.97638600   -0.01520700    2.44373800
 C                 -0.03793200   -1.72460300    1.20066300
 C                 -0.03579100   -0.59014600    0.40467200
 C                  0.57617500    0.47141000    1.13604400
 C                  0.68983800    1.58333300    0.30794000
 C                 -0.27935700   -0.12395800   -0.96867800
 N                  0.16069500    1.22873900   -0.92267000
 O                  1.50564700    0.52747300    3.40983200
 O                 -0.70453000   -0.66441600   -1.97649800
 H                  0.13812600    1.86118900   -1.71533600
 H                  0.59348100   -1.95129500    3.23505500
 C                  1.32421700    3.95197300   -0.37331600
 C                  1.93583100    5.12907300    0.19478400
 C                  1.68869300    6.21126600   -1.77500700
 H                  1.81065700    7.09999000   -2.39086700
 C                  1.08058100    5.04207400   -2.34403300
 H                  0.75102200    5.05871000   -3.38056800
 C                  1.23419200    2.88405400    0.54077500
 C                  2.29984900    4.94324500    1.52314000
 H                  2.77403500    5.65991700    2.17912900
 S                  1.90985900    3.37147000    2.07391800
 N                  0.89536400    3.92807800   -1.66846300
 N                  2.11336900    6.27206100   -0.53424100
 C                 -1.12575438   -5.33007085    1.22219457
 C                 -0.48476216   -4.16866964    1.79660421
 C                  0.05319996   -5.37171213    3.62656531
 H                  0.54073604   -5.45575329    4.59584336
 C                 -0.63614195   -6.51339240    3.08240864
 H                 -0.68007401   -7.43358051    3.66229200
 C                 -1.61574616   -5.09718566   -0.05421575
 H                 -2.13322195   -5.79003881   -0.70247152
 C                 -0.52688000   -3.04932600    0.95218200
 S                 -1.32321898   -3.47863005   -0.53966700
 N                 -1.20271711   -6.51835754    1.90052401
 N                  0.14485863   -4.22147035    3.00421173

 1 2 1.0 3 1.0 12 1.0
 2 5 1.0 9 2.0
 3 4 2.0 33 1.5
 4 5 1.5 7 1.0
 5 6 1.5
 6 8 1.0 19 1.5
 7 8 1.0 10 2.0
 8 11 1.0
 9
 10
 11
 12
 13 14 1.5 19 1.5 23 1.5
 14 20 1.5 24 1.5
 15 16 1.0 17 1.5 24 2.0
 16
 17 18 1.0 23 2.0
 18
 19 22 1.0
 20 21 1.0 22 1.0
 21
 22
 23
 24
 25 26 1.5 31 1.5 35 1.5
 26 33 1.5 36 1.5
 27 28 1.0 29 1.5 36 2.0
 28
 29 30 1.0 35 2.0
 30
 31 32 1.0 34 1.0
 32
 33 34 1.0
 34
 35
 36

