%chk=DPP-SUB-11-TD-DFT.chk
# td=(nstates=10) cam-b3lyp/6-31+g(d,p) geom=connectivity scf=maxcycle=1500

Title Card Required

0 1
 N                  1.15124200    1.77731300   -0.18195500
 C                 -0.26533000    1.79489800   -0.17685600
 C                  1.69043200    0.49396700   -0.17927700
 C                  0.60898100   -0.37823000   -0.17514300
 C                 -0.60898100    0.37823000   -0.17514300
 C                 -1.69043200   -0.49396600   -0.17927800
 C                  0.26533000   -1.79489700   -0.17685600
 N                 -1.15124200   -1.77731200   -0.18195600
 O                 -0.92916200    2.82880400   -0.17323700
 O                  0.92916200   -2.82880300   -0.17323700
 H                 -1.67454800   -2.63926700   -0.17217300
 H                  1.67454800    2.63926800   -0.17217200
 C                 -3.11992600   -0.24492300   -0.18182700
 C                 -3.60865200    1.08116000   -0.15963200
 C                 -4.06202100   -1.29477800   -0.20228000
 C                 -4.97216600    1.33338700   -0.15272200
 H                 -2.90777900    1.91078600   -0.13770800
 C                 -5.42530200   -1.03522400   -0.20526200
 H                 -3.74128400   -2.33171800   -0.22734500
 C                 -5.91829700    0.28580000   -0.18061100
 H                 -5.31114700    2.36293100   -0.10644100
 H                 -6.11825700   -1.87012900   -0.24423100
 C                  3.11992600    0.24492400   -0.18182600
 C                  3.60865100   -1.08115900   -0.15963100
 C                  4.06202100    1.29477800   -0.20227900
 C                  4.97216600   -1.33338600   -0.15272000
 H                  2.90777900   -1.91078500   -0.13770700
 C                  5.42530200    1.03522500   -0.20526100
 H                  3.74128400    2.33171900   -0.22734400
 C                  5.91829700   -0.28580000   -0.18060900
 H                  5.31114700   -2.36293100   -0.10643900
 H                  6.11825700    1.87012900   -0.24423000
 C                 -7.35146100    0.57351900   -0.18505300
 C                 -7.99193400    1.75139800   -0.51964400
 S                 -8.53567100   -0.63575500    0.27672800
 C                 -9.40452700    1.68443200   -0.41870400
 H                 -7.46380700    2.63303000   -0.86372500
 C                 -9.87564700    0.45474600   -0.00463700
 H                -10.06055100    2.50718200   -0.67903100
 C                  7.35146100   -0.57351900   -0.18505100
 C                  7.99193300   -1.75139800   -0.51964200
 S                  8.53567100    0.63575500    0.27672900
 C                  9.40452600   -1.68443300   -0.41870300
 H                  7.46380600   -2.63303000   -0.86372300
 C                  9.87564700   -0.45474700   -0.00463600
 H                 10.06054900   -2.50718300   -0.67902900
 C                 11.26604200   -0.03406500    0.20844500
 C                 11.66411400    1.30716400    0.05053500
 C                 12.24315700   -0.98033700    0.57556100
 C                 12.99125300    1.68704900    0.24947600
 H                 10.93385800    2.05272800   -0.25045900
 C                 13.57097100   -0.59951300    0.76348900
 H                 11.95314100   -2.01423400    0.73467400
 C                 13.95240900    0.73620300    0.60338600
 H                 13.27603300    2.72699700    0.11848200
 H                 14.30689000   -1.34570100    1.04895900
 H                 14.98590800    1.03266700    0.75539100
 C                -11.26604200    0.03406400    0.20844500
 C                -11.66411400   -1.30716500    0.05053400
 C                -12.24315600    0.98033500    0.57556400
 C                -12.99125300   -1.68705000    0.24947500
 H                -10.93385900   -2.05272900   -0.25046300
 C                -13.57097000    0.59951100    0.76349300
 H                -11.95314000    2.01423200    0.73467800
 C                -13.95240900   -0.73620400    0.60338800
 H                -13.27603400   -2.72699700    0.11848000
 H                -14.30688900    1.34569900    1.04896500
 H                -14.98590700   -1.03266800    0.75539400

 1 2 1.0 3 1.0 12 1.0
 2 5 1.0 9 2.0
 3 4 1.5 23 1.0
 4 5 1.5 7 1.0
 5 6 1.5
 6 8 1.0 13 1.0
 7 8 1.0 10 2.0
 8 11 1.0
 9
 10
 11
 12
 13 14 1.5 15 1.5
 14 16 1.5 17 1.0
 15 18 1.5 19 1.0
 16 20 1.5 21 1.0
 17
 18 20 1.5 22 1.0
 19
 20 33 1.0
 21
 22
 23 24 1.5 25 1.5
 24 26 1.5 27 1.0
 25 28 1.5 29 1.0
 26 30 1.5 31 1.0
 27
 28 30 1.5 32 1.0
 29
 30 40 1.0
 31
 32
 33 34 2.0 35 1.0
 34 36 1.5 37 1.0
 35 38 1.0
 36 38 2.0 39 1.0
 37
 38 58 1.0
 39
 40 41 2.0 42 1.0
 41 43 1.5 44 1.0
 42 45 1.0
 43 45 2.0 46 1.0
 44
 45 47 1.0
 46
 47 48 1.5 49 1.5
 48 50 1.5 51 1.0
 49 52 1.5 53 1.0
 50 54 1.5 55 1.0
 51
 52 54 1.5 56 1.0
 53
 54 57 1.0
 55
 56
 57
 58 59 1.5 60 1.5
 59 61 1.5 62 1.0
 60 63 1.5 64 1.0
 61 65 1.5 66 1.0
 62
 63 65 1.5 67 1.0
 64
 65 68 1.0
 66
 67
 68

