%nprocshared=6
%chk=G:\Meu Drive\POS-DOC-IME\SUBSTITUINTES-DOADORES\DPP-substituido\DPP-SUB-11\DPP-SUB-11-OPT-FREQ-CONT-2.chk
# opt=(calcfc,tight) freq b3lyp/6-31+g(d,p) geom=connectivity polar
scf=maxcycle=1500

Title Card Required

0 1
 N                 -1.16528500   -1.75111700   -0.05308700
 C                  0.25112900   -1.78014900   -0.05244200
 C                 -1.69412700   -0.46346900   -0.05145900
 C                 -0.60431500    0.40020400   -0.04979400
 C                  0.60664600   -0.36651000   -0.05029900
 C                  1.69651600    0.49619800   -0.04756400
 C                 -0.24769800    1.81389800   -0.04666200
 N                  1.16841000    1.78427400   -0.04500500
 O                  0.90642300   -2.81948400   -0.05637900
 O                 -0.90138500    2.85445500   -0.04754100
 H                  1.69950700    2.64155600   -0.04642600
 H                 -1.69635900   -2.60844100   -0.05805200
 C                  3.12244800    0.23432900   -0.04785200
 C                  3.60046300   -1.09601900   -0.06133500
 C                  4.07514200    1.27478100   -0.03483000
 C                  4.96096700   -1.36104300   -0.06407600
 H                  2.89247000   -1.91986100   -0.06744300
 C                  5.43556200    1.00229200   -0.03957300
 H                  3.76479300    2.31512100   -0.02105700
 C                  5.91856900   -0.32289100   -0.05586300
 H                  5.28406600   -2.39616600   -0.06688700
 H                  6.13270300    1.83435400   -0.03459600
 C                 -3.12133300   -0.20676200   -0.05286000
 C                 -3.60852800    1.12054200   -0.06211600
 C                 -4.06651300   -1.25371400   -0.04501900
 C                 -4.97088700    1.37576400   -0.06574500
 H                 -2.90702200    1.94968900   -0.06404900
 C                 -5.42897200   -0.99084100   -0.05106600
 H                 -3.74781300   -2.29169300   -0.03461000
 C                 -5.92122700    0.33051600   -0.06318700
 H                 -5.30154100    2.40845500   -0.06405200
 H                 -6.11996500   -1.82805500   -0.05091900
 C                  7.34956500   -0.62115300   -0.06512500
 C                  7.97703800   -1.84617300   -0.18395900
 S                  8.55459700    0.64656300    0.08854500
 C                  9.39123100   -1.77307700   -0.15447700
 H                  7.44099000   -2.78002500   -0.30238100
 C                  9.88433000   -0.49105100   -0.01288800
 H                 10.02490700   -2.64600400   -0.25488800
 C                 -7.35425800    0.61887200   -0.07405700
 C                 -7.98982500    1.83866300   -0.20366500
 S                 -8.55086000   -0.65513000    0.09251900
 C                 -9.40351700    1.75666400   -0.17227800
 H                 -7.45982300    2.77457900   -0.33272100
 C                 -9.88805000    0.47282300   -0.01819900
 H                -10.04306200    2.62420200   -0.28182200
 C                -11.28273200    0.01945500    0.06154500
 C                -11.62579200   -1.34140000   -0.05497000
 C                -12.32551700    0.94752700    0.25776300
 C                -12.95443700   -1.75759400    0.02134300
 H                -10.84994200   -2.08373600   -0.21740600
 C                -13.65305300    0.53040400    0.32724600
 H                -12.09789300    2.00201100    0.37122000
 C                -13.97711800   -0.82487200    0.21032400
 H                -13.18933800   -2.81407000   -0.07044600
 H                -14.43668400    1.26728100    0.47818800
 H                -15.01189200   -1.14874400    0.26736500
 C                 11.28203700   -0.04598500    0.06076800
 C                 11.63178000    1.31395200   -0.04635800
 C                 12.32108400   -0.98134800    0.24161000
 C                 12.96315500    1.72230700    0.02408300
 H                 10.85888100    2.06204200   -0.19603900
 C                 13.65128700   -0.57191800    0.30583800
 H                 12.08877200   -2.03571900    0.34597000
 C                 13.98200800    0.78249800    0.19827600
 H                 13.20316700    2.77823600   -0.06033600
 H                 14.43189200   -1.31435400    0.44488500
 H                 15.01885900    1.10024900    0.25101300

 1 2 1.0 3 1.0 12 1.0
 2 5 1.0 9 2.0
 3 4 1.5 23 1.0
 4 5 1.5 7 1.0
 5 6 1.5
 6 8 1.0 13 1.0
 7 8 1.0 10 2.0
 8 11 1.0
 9
 10
 11
 12
 13 14 1.5 15 1.5
 14 16 1.5 17 1.0
 15 18 1.5 19 1.0
 16 20 1.5 21 1.0
 17
 18 20 1.5 22 1.0
 19
 20 33 1.0
 21
 22
 23 24 1.5 25 1.5
 24 26 1.5 27 1.0
 25 28 1.5 29 1.0
 26 30 1.5 31 1.0
 27
 28 30 1.5 32 1.0
 29
 30 40 1.0
 31
 32
 33 34 2.0 35 1.0
 34 36 1.5 37 1.0
 35 38 1.0
 36 38 2.0 39 1.0
 37
 38 58 1.0
 39
 40 41 2.0 42 1.0
 41 43 1.5 44 1.0
 42 45 1.0
 43 45 2.0 46 1.0
 44
 45 47 1.0
 46
 47 48 1.5 49 1.5
 48 50 1.5 51 1.0
 49 52 1.5 53 1.0
 50 54 1.5 55 1.0
 51
 52 54 1.5 56 1.0
 53
 54 57 1.0
 55
 56
 57
 58 59 1.5 60 1.5
 59 61 1.5 62 1.0
 60 63 1.5 64 1.0
 61 65 1.5 66 1.0
 62
 63 65 1.5 67 1.0
 64
 65 68 1.0
 66
 67
 68

