%nprocshared=6
%chk=G:\Meu Drive\POS-DOC-IME\SUBSTITUINTES-DOADORES\DPP-substituido\DPP-SUB-8\DPP-SUB-8-ANION.chk
# opt=tight freq b3lyp/6-31+g(d,p) geom=connectivity

Energy:

-1 2
 N                  1.57277400    1.42664700    0.00015400
 C                  0.21160800    1.80415500    0.00028400
 C                  1.75510800    0.05280100   -0.00004300
 C                  0.48871600   -0.52241000   -0.00003100
 C                 -0.48871600    0.52241000    0.00015800
 C                 -1.75510800   -0.05279900    0.00010700
 C                 -0.21161100   -1.80415500   -0.00019800
 N                 -1.57277600   -1.42664600   -0.00012800
 O                 -0.17558800    2.97158300    0.00043900
 O                  0.17558300   -2.97158300   -0.00039600
 H                 -2.34792500   -2.08224300   -0.00016100
 H                  2.34792100    2.08224700    0.00016800
 C                 -4.27762300   -0.19449000    0.00018400
 C                 -5.52794800    0.46923400    0.00031500
 C                 -5.62776600    1.86338800    0.00050300
 H                 -6.59260200    2.35977200    0.00060900
 C                 -4.44188800    2.59562900    0.00056700
 H                 -4.48340500    3.68029100    0.00071300
 C                 -3.19130400    1.96480800    0.00043900
 H                 -2.28880500    2.56979000    0.00049500
 C                 -3.07331400    0.56369200    0.00024400
 N                 -4.36056100   -1.58108600   -0.00000500
 C                  5.52795000   -0.46923500   -0.00035800
 C                  4.27762400    0.19449100   -0.00019800
 C                  3.07331500   -0.56369100   -0.00021300
 C                  3.19130400   -1.96480700   -0.00039100
 H                  2.28880500   -2.56978800   -0.00040800
 C                  4.44188700   -2.59562800   -0.00054900
 H                  4.48340300   -3.68029000   -0.00068100
 C                  5.62776500   -1.86338800   -0.00053100
 H                  6.59260000   -2.35977400   -0.00066000
 N                  4.36056400    1.58108600   -0.00002900
 C                  5.59476300    1.97693500   -0.00006400
 H                  5.88841500    3.02033800    0.00004900
 C                 -5.59476100   -1.97693500   -0.00000500
 H                 -5.88841000   -3.02033900   -0.00014100
 S                  6.81650700    0.71956700   -0.00029700
 S                 -6.81650400   -0.71957000    0.00019900

 1 2 1.0 3 1.0 12 1.0
 2 5 1.0 9 2.0
 3 4 1.5 25 1.0
 4 5 1.5 7 1.0
 5 6 1.5
 6 8 1.0 21 1.0
 7 8 1.0 10 2.0
 8 11 1.0
 9
 10
 11
 12
 13 14 1.5 21 1.5 22 1.0
 14 15 1.5 38 1.0
 15 16 1.0 17 1.5
 16
 17 18 1.0 19 1.5
 18
 19 20 1.0 21 1.5
 20
 21
 22 35 2.0
 23 24 1.5 30 1.5 37 1.0
 24 25 1.5 32 1.0
 25 26 1.5
 26 27 1.0 28 1.5
 27
 28 29 1.0 30 1.5
 29
 30 31 1.0
 31
 32 33 2.0
 33 34 1.0 37 1.0
 34
 35 36 1.0 38 1.0
 36
 37
 38

