%mem=6GB
%chk=DPP-SUB-8-OPT-FREQ.chk
# opt=tight freq b3lyp/6-31+g(d,p) geom=connectivity

Energy:

0 1
 N                  1.57276500    1.42672600   -0.00190600
 C                  0.21159300    1.80424100   -0.00119200
 C                  1.75511700    0.05288300   -0.00032100
 C                  0.48871400   -0.52231400    0.00077200
 C                 -0.48872200    0.52247700    0.00023200
 C                 -1.75511100   -0.05275700    0.00094300
 C                 -0.21156900   -1.80407400    0.00182800
 N                 -1.57274000   -1.42660700    0.00230000
 O                 -0.17560900    2.97166100   -0.00176600
 O                  0.17569600   -2.97147500    0.00214300
 H                 -2.34788000   -2.08221700    0.00211300
 H                  2.34790300    2.08233500   -0.00199300
 C                 -4.27761800   -0.19450500    0.00009300
 C                 -5.52797200    0.46917600   -0.00013800
 C                 -5.62782300    1.86332500    0.00064900
 H                 -6.59267300    2.35968300    0.00050300
 C                 -4.44196500    2.59560200    0.00164400
 H                 -4.48351900    3.68026200    0.00221300
 C                 -3.19136200    1.96481900    0.00182900
 H                 -2.28888600    2.56983000    0.00229800
 C                 -3.07333000    0.56370500    0.00120300
 N                 -4.36051400   -1.58110100   -0.00067600
 C                  5.52792400   -0.46928800   -0.00022100
 C                  4.27763700    0.19448900   -0.00028500
 C                  3.07329800   -0.56364800   -0.00086100
 C                  3.19122800   -1.96476700   -0.00097900
 H                  2.28868700   -2.56968200   -0.00086300
 C                  4.44178100   -2.59563800   -0.00096700
 H                  4.48324600   -3.68030000   -0.00119200
 C                  5.62768700   -1.86344300   -0.00055000
 H                  6.59250500   -2.35986500   -0.00050100
 N                  4.36062500    1.58108600   -0.00002100
 C                  5.59484700    1.97687700    0.00040600
 H                  5.88854100    3.02026700    0.00070500
 C                 -5.59469000   -1.97699800   -0.00155800
 H                 -5.88833000   -3.02040300   -0.00227400
 S                  6.81654200    0.71946300    0.00041000
 S                 -6.81649200   -0.71965700   -0.00147800

 1 2 1.0 3 1.0 12 1.0
 2 5 1.0 9 2.0
 3 4 1.5 25 1.0
 4 5 1.5 7 1.0
 5 6 1.5
 6 8 1.0 21 1.0
 7 8 1.0 10 2.0
 8 11 1.0
 9
 10
 11
 12
 13 14 1.5 21 1.5 22 1.0
 14 15 1.5 38 1.0
 15 16 1.0 17 1.5
 16
 17 18 1.0 19 1.5
 18
 19 20 1.0 21 1.5
 20
 21
 22 35 2.0
 23 24 1.5 30 1.5 37 1.0
 24 25 1.5 32 1.0
 25 26 1.5
 26 27 1.0 28 1.5
 27
 28 29 1.0 30 1.5
 29
 30 31 1.0
 31
 32 33 2.0
 33 34 1.0 37 1.0
 34
 35 36 1.0 38 1.0
 36
 37
 38

