%chk=/home/nathalia.rosa/DPP-SUB/DPP-SUB-4b/DPP-SUB-4B-ANION.chk
# opt=tight freq b3lyp/6-31+g(d,p) nosymm geom=connectivity

Energy:

-1 2
 N                  1.35555500   -0.43338600   -0.07639500
 C                  0.70667500   -0.29354500    1.18256500
 C                  2.30566000    0.56330900   -0.31424300
 C                  2.32264400    1.36236700    0.82475700
 C                  1.37679200    0.85587300    1.76872800
 C                  1.49635500    1.56304600    2.96113400
 C                  3.04613100    2.46393800    1.43868200
 N                  2.51176800    2.50109100    2.75733100
 O                 -0.20697300   -1.01892200    1.56215100
 O                  3.89652000    3.24599100    1.02618500
 H                  2.67342700    3.30356600    3.34788300
 H                  0.95286300   -1.01975300   -0.79255000
 C                  4.06377600    0.15124800   -3.62541500
 C                  3.29087900   -0.35856200   -2.51210700
 C                  2.92529700   -1.73809800   -2.51790000
 C                  3.26828500   -2.53247800   -3.58808500
 H                  2.99385100   -3.58316900   -3.58045800
 C                  3.99376200   -2.01295300   -4.70184400
 H                  4.24118700   -2.67159200   -5.52872400
 C                  4.39553000   -0.70113600   -4.72137900
 H                  4.96855600   -0.30325300   -5.55376700
 C                  3.06155400    0.63309600   -1.52761800
 C                  4.41217700    1.48838000   -3.45473300
 H                  4.99112100    2.10815600   -4.12645200
 S                  3.83618600    2.12962500   -1.98381800
 C                  1.15193800    1.91168100    5.49327600
 C                  0.12405600    1.63018200    6.47347500
 C                  0.29551000    2.03301200    7.83211700
 H                 -0.48742700    1.82288200    8.55488200
 C                  1.45101400    2.67141400    8.20619600
 H                  1.59355100    2.98201100    9.23671300
 C                  2.48617800    2.91359800    7.25415100
 H                  3.40622000    3.38717300    7.58364100
 C                  2.35229100    2.54493700    5.93501300
 C                 -0.95629100    0.94744200    5.92100100
 H                 -1.84974900    0.60902500    6.42866100
 C                  0.79949900    1.44032200    4.20520800
 S                 -0.74906300    0.63587400    4.25777100
 H                  2.41750500   -2.18144900   -1.66941400
 H                  3.18057600    2.70113000    5.25392700

 1 2 1.0 3 1.0 12 1.0
 2 5 1.0 9 2.0
 3 4 1.5 22 1.5
 4 5 1.5 7 1.0
 5 6 1.5
 6 8 1.0 37 1.5
 7 8 1.0 10 2.0
 8 11 1.0
 9
 10
 11
 12
 13 14 1.0 20 1.5 23 1.5
 14 15 1.5 22 1.5
 15 16 2.0 39 1.0
 16 17 1.0 18 1.5
 17
 18 19 1.0 20 2.0
 19
 20 21 1.0
 21
 22 25 1.0
 23 24 1.0 25 1.0
 24
 25
 26 27 1.0 34 1.5 37 1.5
 27 28 1.5 35 1.5
 28 29 1.0 30 2.0
 29
 30 31 1.0 32 1.5
 31
 32 33 1.0 34 2.0
 33
 34 40 1.0
 35 36 1.0 38 1.0
 36
 37 38 1.0
 38
 39
 40

