%nprocshared=6
%chk=G:\Meu Drive\POS-DOC-IME\SUBSTITUINTES-DOADORES\DPP-substituido\DPP-SUB-4b\DPP-SUB-4b-OPT-FREQ.chk
# opt=tight freq b3lyp/6-31+g(d,p) nosymm geom=connectivity

Energy:

0 1
 N                  1.45654400   -0.55674100   -0.05365700
 C                  0.81771400   -0.46435200    1.21281800
 C                  2.45290000    0.40343000   -0.23654100
 C                  2.52950600    1.11013900    0.95803800
 C                  1.56613900    0.59303600    1.88556000
 C                  1.61926700    1.35059000    3.05412300
 C                  3.21695200    2.23491500    1.56795400
 N                  2.59052700    2.33309400    2.83665300
 O                 -0.13693100   -1.16512900    1.53140100
 O                  4.11117800    2.98326000    1.18458200
 H                  2.96096200    2.94601400    3.54953700
 H                  1.02617000   -1.08555000   -0.79738700
 C                  4.04610500    0.19607300   -3.64843500
 C                  3.30182600   -0.37145100   -2.54361800
 C                  2.86505300   -1.72625000   -2.64951100
 C                  3.11321500   -2.43801200   -3.80100200
 H                  2.78511100   -3.47099600   -3.86901300
 C                  3.81018400   -1.85767200   -4.90272300
 H                  3.98209900   -2.45151500   -5.79518200
 C                  4.27986500   -0.57059900   -4.82949400
 H                  4.83293400   -0.12848600   -5.65300400
 C                  3.17156200    0.54044200   -1.46783800
 C                  4.47260700    1.49411400   -3.38212300
 H                  5.05107800    2.14142400   -4.02782400
 S                  4.00420100    2.03102500   -1.83379400
 C                  1.15725708    1.90741132    5.54424947
 C                  0.11069382    1.63548823    6.51041955
 C                  0.20198271    2.16660804    7.83432936
 H                 -0.58230727    1.95064198    8.55375785
 C                  1.27640072    2.94984320    8.16771467
 H                  1.35767516    3.36322083    9.16862298
 C                  2.29821327    3.23537793    7.21000777
 H                  3.13812600    3.85682741    7.50561293
 C                  2.25018987    2.73607548    5.93046185
 C                 -0.91713384    0.86453641    5.98124707
 H                 -1.80854830    0.51187780    6.48212315
 C                  0.88887600    1.32162000    4.28887300
 S                 -0.63661566    0.46464707    4.34350400
 H                  2.37963900   -2.22091800   -1.81647400
 H                  3.05416984    2.93800919    5.23657734

 1 2 1.0 3 1.0 12 1.0
 2 5 1.0 9 2.0
 3 4 1.5 22 1.5
 4 5 1.5 7 1.0
 5 6 1.5
 6 8 1.0 37 1.5
 7 8 1.0 10 2.0
 8 11 1.0
 9
 10
 11
 12
 13 14 1.0 20 1.5 23 1.5
 14 15 1.5 22 1.5
 15 16 2.0 39 1.0
 16 17 1.0 18 1.5
 17
 18 19 1.0 20 2.0
 19
 20 21 1.0
 21
 22 25 1.0
 23 24 1.0 25 1.0
 24
 25
 26 27 1.0 34 1.5 37 1.5
 27 28 1.5 35 1.5
 28 29 1.0 30 2.0
 29
 30 31 1.0 32 1.5
 31
 32 33 1.0 34 2.0
 33
 34 40 1.0
 35 36 1.0 38 1.0
 36
 37 38 1.0
 38
 39
 40

